T42/data/state_estimation/PT_Dx_01_2040_W_Bd/PT_Dx_01_2040_W_Bd_t22.csv
bus,vm_pu,va_degree,p_mw,q_mvar
1,0.967048,-0.085383,-11.560568,-4.569057
2,0.999774,0.000703,24.864921,9.667369
3,0.968469,-0.086439,0.000088,-0.000045
4,0.968584,-0.085543,-0.000026,-0.000049
5,0.968085,-0.086190,-0.000018,0.000005
6,0.969123,-0.085655,-0.028241,-0.014510
7,0.967047,-0.085946,-0.067824,-0.034830
8,0.967206,-0.084658,-0.011934,-0.006014
9,0.967147,-0.086418,-0.467533,-0.239561
10,0.966600,-0.085647,-2.759857,-1.413909
11,0.967195,-0.085721,-0.582507,-0.298561
12,0.964376,-0.088876,-0.001738,-0.000938
13,0.966325,-0.085027,-0.045454,-0.017953
14,0.967526,-0.086485,-1.598790,-0.806733
15,0.963973,-0.088687,-0.020712,-0.010550
16,0.967819,-0.086014,-0.023609,-0.012082
17,0.967013,-0.086274,-0.003955,-0.002065
18,0.966792,-0.086226,-0.009962,-0.005146
19,0.964380,-0.088580,-0.046512,-0.023743
20,0.967635,-0.086154,-0.946973,-0.472875
21,0.964711,-0.087933,-0.002771,-0.001156
22,0.967158,-0.086628,-0.008161,-0.003216
23,0.964763,-0.088296,-0.053479,-0.027401
24,0.964203,-0.088531,-0.098393,-0.038942
25,0.965557,-0.087854,-0.023694,-0.009365
26,0.967193,-0.086236,-0.037627,-0.019291
27,0.966773,-0.085560,-0.004424,-0.002223
28,0.964501,-0.088510,-0.058198,-0.029912
29,0.967845,-0.085714,-0.031791,-0.016243
30,0.966071,-0.085058,-0.163694,-0.083907
31,0.966701,-0.086129,-0.020277,-0.010417
32,0.967530,-0.085488,-0.105229,-0.053876
33,0.967172,-0.085441,-0.460198,-0.223508
34,0.963249,-0.088286,-0.000663,-0.000281
35,0.964369,-0.087714,-0.007283,-0.003652
36,0.966733,-0.086502,-0.008766,-0.004443
37,0.966387,-0.084988,-0.010073,-0.003963
38,0.963603,-0.089102,-0.094496,-0.048464
39,0.967179,-0.086722,-0.119371,-0.061146
40,0.963782,-0.088030,-0.031211,-0.012446
41,0.963562,-0.088277,-0.028137,-0.011084
42,0.963156,-0.088209,-0.003616,-0.001950
43,0.964760,-0.087594,-0.115319,-0.059131
44,0.963741,-0.088586,-0.103139,-0.052897
45,0.964610,-0.087953,-0.004175,-0.001641
46,0.966775,-0.086722,-0.097224,-0.049866
47,0.965581,-0.088183,-0.252006,-0.128958
48,0.968031,-0.086415,-0.001467,-0.000760
49,0.966348,-0.085737,-0.023673,-0.012060
50,0.967562,-0.085889,-0.005181,-0.002621
51,0.968196,-0.085899,-0.016760,-0.006599
52,0.966338,-0.085591,-0.011290,-0.005754
53,0.964164,-0.088104,-0.209146,-0.107153
54,0.966250,-0.086572,-0.012213,-0.004874
55,0.967808,-0.086006,-0.034888,-0.017897
56,0.966700,-0.086605,-0.008843,-0.004427
57,0.967071,-0.085913,-0.005507,-0.002831
58,0.963362,-0.089271,-0.013605,-0.007049
59,0.964147,-0.088027,-0.049398,-0.019606
60,0.964651,-0.088551,-0.031788,-0.012495
61,0.967045,-0.085979,-0.667449,-0.329595
62,0.967551,-0.085469,-0.001466,-0.000677
63,0.963780,-0.088217,-0.002310,-0.001288
64,0.967839,-0.085917,-0.265133,-0.135860
65,0.967769,-0.085764,-0.452714,-0.219679
66,0.967138,-0.085453,-0.284823,-0.145967
67,0.967439,-0.085536,-0.034038,-0.017364
68,0.964058,-0.088570,-0.135093,-0.069283
69,0.966247,-0.086315,-0.035196,-0.013951
70,0.966599,-0.086463,-0.086913,-0.044552
71,0.963722,-0.089018,-0.010010,-0.005179
72,0.963720,-0.088868,-0.028650,-0.014677
73,0.963638,-0.088286,-0.019001,-0.007574
74,0.964809,-0.088971,-0.008423,-0.004305
75,0.965045,-0.088560,-0.121058,-0.062061
76,0.967080,-0.084966,-0.009157,-0.004740
77,0.968083,-0.085719,-0.029724,-0.015268
78,0.966789,-0.085343,-0.118994,-0.060992
79,0.967570,-0.085833,-0.128378,-0.065717
80,0.964678,-0.087118,0.000023,-0.000061
81,0.963644,-0.089494,-0.003186,-0.001589
82,0.966348,-0.085824,-0.007396,-0.003851
83,0.966839,-0.086015,-0.090252,-0.046190
84,0.967071,-0.086118,-0.017429,-0.008921
85,0.964053,-0.088086,-0.013420,-0.006788
86,0.967793,-0.085573,-0.066212,-0.026160
87,0.966895,-0.086736,-0.043936,-0.022512
88,0.968483,-0.085957,-0.021512,-0.011050
89,0.967407,-0.085742,-0.016238,-0.008365
90,0.966206,-0.085833,-0.034671,-0.017771
91,0.963470,-0.087988,-0.039747,-0.020416
92,0.963618,-0.087963,-0.002174,-0.001085
93,0.966891,-0.086696,-0.043214,-0.022252
94,0.964681,-0.088185,-0.067080,-0.034313
95,0.967469,-0.085955,-0.200246,-0.102452
96,0.963370,-0.087974,-0.029471,-0.011649
97,0.962897,-0.088287,-0.018792,-0.009615
98,0.963361,-0.087775,-0.058730,-0.023230
99,0.967791,-0.086589,-0.388830,-0.186911
100,0.966582,-0.086255,-0.023591,-0.012060
101,0.967516,-0.086147,-0.071368,-0.028144
102,0.967140,-0.085232,-0.301141,-0.141896
103,0.966553,-0.086329,-0.064899,-0.025593
104,0.964413,-0.087424,-0.146788,-0.057911
105,0.966482,-0.086826,-0.003617,-0.001808
106,0.967297,-0.086470,-0.000124,-0.000046
107,0.966405,-0.085737,0.000077,0.000060
108,0.966375,-0.085109,0.000041,-0.000111
109,0.967183,-0.085684,-0.000052,0.000028
110,0.964717,-0.088184,0.000079,-0.000041
111,0.963769,-0.089042,-0.000076,-0.000056
112,0.967514,-0.085759,-0.000045,0.000010
113,0.967353,-0.086169,0.000024,-0.000003
114,0.964209,-0.088597,-0.000011,0.000018
115,0.963520,-0.087975,-0.000014,-0.000049
116,0.966764,-0.085800,0.000093,0.000013
117,0.963717,-0.089122,-0.000026,0.000015
118,0.966885,-0.086221,-0.000039,-0.000072
119,0.966644,-0.086239,-0.000018,0.000043
120,0.966880,-0.085636,-0.000034,0.000003
121,0.967581,-0.085515,-0.000010,-0.000031
122,0.966388,-0.085977,-0.000024,0.000049
123,0.967382,-0.086458,0.000020,-0.000020
124,0.966935,-0.085336,0.000043,-0.000002
125,0.966528,-0.086798,0.000001,0.000007
126,0.963592,-0.088857,0.000023,-0.000005
127,0.967454,-0.086301,-0.000034,0.000001
128,0.964245,-0.088074,-0.000010,-0.000043
129,0.963845,-0.087444,-0.000001,-0.000044
130,0.963708,-0.088214,-0.000013,0.000015
131,0.968528,-0.085652,0.000011,0.000099
132,0.965626,-0.087801,-0.000016,0.000066
133,0.967353,-0.086436,0.000158,-0.000016
134,0.968207,-0.086186,0.000016,0.000084
135,0.964056,-0.089023,-0.000047,0.000063
136,0.964825,-0.088433,-0.000026,-0.000043
137,0.963941,-0.088858,-0.000064,-0.000064
138,0.964118,-0.089210,-0.000014,-0.000037
139,0.964470,-0.087907,-0.000028,-0.000013
140,0.966772,-0.085548,0.000021,0.000019
141,0.964355,-0.088019,0.000000,-0.000047
142,0.963765,-0.088170,0.000045,0.000124
143,0.964871,-0.088063,0.000043,-0.000013
144,0.968280,-0.086177,0.000112,-0.000028
145,0.967252,-0.085783,-0.000060,-0.000032
146,0.966716,-0.085884,0.000031,0.000009
147,0.965256,-0.086897,-0.000085,0.000001
148,0.965793,-0.086319,-0.000073,0.000021
149,0.963770,-0.089129,-0.000048,0.000129
150,0.964450,-0.087487,0.000079,-0.000004
151,0.967698,-0.085937,0.000003,0.000078
152,0.966924,-0.086439,-0.000018,0.000030
153,0.966773,-0.085830,-0.000030,-0.000065
154,0.966324,-0.086343,-0.000050,0.000105
155,0.964294,-0.087850,-0.000015,-0.000006
156,0.965848,-0.086382,-0.000000,0.000015
157,0.968048,-0.086016,0.000011,-0.000072
158,0.966751,-0.086550,0.000050,-0.000002
159,0.964091,-0.088254,0.000008,-0.000039
160,0.967065,-0.085565,0.000018,0.000031
161,0.967749,-0.085902,-0.000000,-0.000049
162,0.964615,-0.087531,-0.000030,-0.000056
163,0.967681,-0.085763,-0.000061,-0.000012
164,0.966452,-0.087415,0.000018,-0.000084
165,0.967078,-0.085837,0.000059,-0.000047
166,0.969474,-0.086401,-0.000012,-0.000073
167,0.963588,-0.088116,0.000088,-0.000010
168,0.966487,-0.087012,-0.000024,-0.000006
169,0.967407,-0.086251,0.000062,0.000041
170,0.966513,-0.085766,-0.000048,-0.000030
171,0.964614,-0.089228,0.000017,0.000076
172,0.964348,-0.088108,-0.000015,0.000057
173,0.967240,-0.086240,-0.000059,-0.000001
174,0.963862,-0.088491,0.000047,0.000047
175,0.963522,-0.087695,0.000016,0.000043
176,0.966459,-0.086534,0.000053,-0.000027
177,0.964580,-0.089147,-0.000032,-0.000050
178,0.964056,-0.087809,-0.000010,-0.000038
179,0.967570,-0.084907,0.000073,0.000023
180,0.967005,-0.086137,0.000076,-0.000037
181,0.963958,-0.089049,0.000031,-0.000051
182,0.964454,-0.087702,0.000030,-0.000027
183,0.967348,-0.086512,0.000083,0.000002
184,0.967209,-0.086227,0.000002,0.000057
185,0.967306,-0.085534,-0.000013,-0.000037
186,0.963882,-0.088888,0.000107,0.000026
187,0.967362,-0.086154,0.000056,0.000115
188,0.964730,-0.088350,-0.000054,0.000026
189,0.967417,-0.086280,0.000051,0.000076
190,0.965064,-0.087812,-0.000103,0.000095
191,0.967433,-0.086063,-0.000033,0.000048
